# generated using pymatgen
data_Nd2Cu3H54C36(NO4)6
_symmetry_space_group_name_H-M   'P 1'
_cell_length_a   7.38170000
_cell_length_b   13.63190000
_cell_length_c   13.63190000
_cell_angle_alpha   120.00000000
_cell_angle_beta   90.00000000
_cell_angle_gamma   90.00000000
_symmetry_Int_Tables_number   1
_chemical_formula_structural   Nd2Cu3H54C36(NO4)6
_chemical_formula_sum   'Nd2 Cu3 H54 C36 N6 O24'
_cell_volume   1187.95449691
_cell_formula_units_Z   1
loop_
 _symmetry_equiv_pos_site_id
 _symmetry_equiv_pos_as_xyz
  1  'x, y, z'
loop_
 _atom_site_type_symbol
 _atom_site_label
 _atom_site_symmetry_multiplicity
 _atom_site_fract_x
 _atom_site_fract_y
 _atom_site_fract_z
 _atom_site_occupancy
  Nd  Nd1  1  0.33992000  0.33333333  0.66666667  1.0
  Nd  Nd2  1  0.66008000  0.66666667  0.33333333  1.0
  Cu  Cu1  1  0.00000000  0.50000000  0.50000000  1.0
  Cu  Cu2  1  0.00000000  0.00000000  0.50000000  1.0
  Cu  Cu3  1  0.00000000  0.50000000  0.00000000  1.0
  H  H1  1  0.86020000  0.35430000  0.32520000  1.0
  H  H2  1  0.95210000  0.20440000  0.34920000  1.0
  H  H3  1  0.76660000  0.26950000  0.45170000  1.0
  H  H4  1  0.64240000  0.21440000  0.28050000  1.0
  H  H5  1  0.53970000  0.33030000  0.33090000  1.0
  H  H6  1  0.49510000  0.24620000  0.37450000  1.0
  H  H7  1  0.99740000  0.20970000  0.20820000  1.0
  H  H8  1  0.09460000  0.12830000  0.24150000  1.0
  H  H9  1  0.19950000  0.23180000  0.24900000  1.0
  H  H10  1  0.86020000  0.97090000  0.64570000  1.0
  H  H11  1  0.95210000  0.14480000  0.79560000  1.0
  H  H12  1  0.76660000  0.18220000  0.73050000  1.0
  H  H13  1  0.64240000  0.06610000  0.78560000  1.0
  H  H14  1  0.53970000  0.00060000  0.66970000  1.0
  H  H15  1  0.49510000  0.12830000  0.75380000  1.0
  H  H16  1  0.99740000  0.99850000  0.79030000  1.0
  H  H17  1  0.09460000  0.11320000  0.87170000  1.0
  H  H18  1  0.19950000  0.01720000  0.76820000  1.0
  H  H19  1  0.86020000  0.67480000  0.02910000  1.0
  H  H20  1  0.95210000  0.65080000  0.85520000  1.0
  H  H21  1  0.76660000  0.54830000  0.81780000  1.0
  H  H22  1  0.64240000  0.71950000  0.93390000  1.0
  H  H23  1  0.53970000  0.66910000  0.99940000  1.0
  H  H24  1  0.49510000  0.62550000  0.87170000  1.0
  H  H25  1  0.99740000  0.79180000  0.00150000  1.0
  H  H26  1  0.09460000  0.75850000  0.88680000  1.0
  H  H27  1  0.19950000  0.75100000  0.98280000  1.0
  H  H28  1  0.13980000  0.64570000  0.67480000  1.0
  H  H29  1  0.04790000  0.79560000  0.65080000  1.0
  H  H30  1  0.23340000  0.73050000  0.54830000  1.0
  H  H31  1  0.35760000  0.78560000  0.71950000  1.0
  H  H32  1  0.46030000  0.66970000  0.66910000  1.0
  H  H33  1  0.50490000  0.75380000  0.62550000  1.0
  H  H34  1  0.00260000  0.79030000  0.79180000  1.0
  H  H35  1  0.90540000  0.87170000  0.75850000  1.0
  H  H36  1  0.80050000  0.76820000  0.75100000  1.0
  H  H37  1  0.13980000  0.02910000  0.35430000  1.0
  H  H38  1  0.04790000  0.85520000  0.20440000  1.0
  H  H39  1  0.23340000  0.81780000  0.26950000  1.0
  H  H40  1  0.35760000  0.93390000  0.21440000  1.0
  H  H41  1  0.46030000  0.99940000  0.33030000  1.0
  H  H42  1  0.50490000  0.87170000  0.24620000  1.0
  H  H43  1  0.00260000  0.00150000  0.20970000  1.0
  H  H44  1  0.90540000  0.88680000  0.12830000  1.0
  H  H45  1  0.80050000  0.98280000  0.23180000  1.0
  H  H46  1  0.13980000  0.32520000  0.97090000  1.0
  H  H47  1  0.04790000  0.34920000  0.14480000  1.0
  H  H48  1  0.23340000  0.45170000  0.18220000  1.0
  H  H49  1  0.35760000  0.28050000  0.06610000  1.0
  H  H50  1  0.46030000  0.33090000  0.00060000  1.0
  H  H51  1  0.50490000  0.37450000  0.12830000  1.0
  H  H52  1  0.00260000  0.20820000  0.99850000  1.0
  H  H53  1  0.90540000  0.24150000  0.11320000  1.0
  H  H54  1  0.80050000  0.24900000  0.01720000  1.0
  C  C1  1  0.13830000  0.27570000  0.45520000  1.0
  C  C2  1  0.03530000  0.26170000  0.35190000  1.0
  C  C3  1  0.73000000  0.32940000  0.43600000  1.0
  C  C4  1  0.68430000  0.42850000  0.55150000  1.0
  C  C5  1  0.58950000  0.27530000  0.34770000  1.0
  C  C6  1  0.08400000  0.20540000  0.25850000  1.0
  C  C7  1  0.13830000  0.17950000  0.72430000  1.0
  C  C8  1  0.03530000  0.09020000  0.73830000  1.0
  C  C9  1  0.73000000  0.10660000  0.67060000  1.0
  C  C10  1  0.68430000  0.12300000  0.57150000  1.0
  C  C11  1  0.58950000  0.07240000  0.72470000  1.0
  C  C12  1  0.08400000  0.05310000  0.79460000  1.0
  C  C13  1  0.13830000  0.54480000  0.82050000  1.0
  C  C14  1  0.03530000  0.64810000  0.90980000  1.0
  C  C15  1  0.73000000  0.56400000  0.89340000  1.0
  C  C16  1  0.68430000  0.44850000  0.87700000  1.0
  C  C17  1  0.58950000  0.65230000  0.92760000  1.0
  C  C18  1  0.08400000  0.74150000  0.94690000  1.0
  C  C19  1  0.86170000  0.72430000  0.54480000  1.0
  C  C20  1  0.96470000  0.73830000  0.64810000  1.0
  C  C21  1  0.27000000  0.67060000  0.56400000  1.0
  C  C22  1  0.31570000  0.57150000  0.44850000  1.0
  C  C23  1  0.41050000  0.72470000  0.65230000  1.0
  C  C24  1  0.91600000  0.79460000  0.74150000  1.0
  C  C25  1  0.86170000  0.82050000  0.27570000  1.0
  C  C26  1  0.96470000  0.90980000  0.26170000  1.0
  C  C27  1  0.27000000  0.89340000  0.32940000  1.0
  C  C28  1  0.31570000  0.87700000  0.42850000  1.0
  C  C29  1  0.41050000  0.92760000  0.27530000  1.0
  C  C30  1  0.91600000  0.94690000  0.20540000  1.0
  C  C31  1  0.86170000  0.45520000  0.17950000  1.0
  C  C32  1  0.96470000  0.35190000  0.09020000  1.0
  C  C33  1  0.27000000  0.43600000  0.10660000  1.0
  C  C34  1  0.31570000  0.55150000  0.12300000  1.0
  C  C35  1  0.41050000  0.34770000  0.07240000  1.0
  C  C36  1  0.91600000  0.25850000  0.05310000  1.0
  N  N1  1  0.89400000  0.35026000  0.38732000  1.0
  N  N2  1  0.89400000  0.03706000  0.64974000  1.0
  N  N3  1  0.89400000  0.61268000  0.96294000  1.0
  N  N4  1  0.10600000  0.64974000  0.61268000  1.0
  N  N5  1  0.10600000  0.96294000  0.35026000  1.0
  N  N6  1  0.10600000  0.38732000  0.03706000  1.0
  O  O1  1  0.24280000  0.19966000  0.44439000  1.0
  O  O2  1  0.12110000  0.36586000  0.54767000  1.0
  O  O3  1  0.78730000  0.51428000  0.59293000  1.0
  O  O4  1  0.54960000  0.41960000  0.60070000  1.0
  O  O5  1  0.24280000  0.24473000  0.80034000  1.0
  O  O6  1  0.12110000  0.18181000  0.63414000  1.0
  O  O7  1  0.78730000  0.07865000  0.48572000  1.0
  O  O8  1  0.54960000  0.18110000  0.58040000  1.0
  O  O9  1  0.24280000  0.55561000  0.75527000  1.0
  O  O10  1  0.12110000  0.45233000  0.81819000  1.0
  O  O11  1  0.78730000  0.40707000  0.92135000  1.0
  O  O12  1  0.54960000  0.39930000  0.81890000  1.0
  O  O13  1  0.75720000  0.80034000  0.55561000  1.0
  O  O14  1  0.87890000  0.63414000  0.45233000  1.0
  O  O15  1  0.21270000  0.48572000  0.40707000  1.0
  O  O16  1  0.45040000  0.58040000  0.39930000  1.0
  O  O17  1  0.75720000  0.75527000  0.19966000  1.0
  O  O18  1  0.87890000  0.81819000  0.36586000  1.0
  O  O19  1  0.21270000  0.92135000  0.51428000  1.0
  O  O20  1  0.45040000  0.81890000  0.41960000  1.0
  O  O21  1  0.75720000  0.44439000  0.24473000  1.0
  O  O22  1  0.87890000  0.54767000  0.18181000  1.0
  O  O23  1  0.21270000  0.59293000  0.07865000  1.0
  O  O24  1  0.45040000  0.60070000  0.18110000  1.0
