# generated using pymatgen
data_FeH4Pt(C4N3)2
_symmetry_space_group_name_H-M   'P 1'
_cell_length_a   6.73700000
_cell_length_b   7.12200000
_cell_length_c   7.17500000
_cell_angle_alpha   90.00000000
_cell_angle_beta   90.00000000
_cell_angle_gamma   90.00000000
_symmetry_Int_Tables_number   1
_chemical_formula_structural   FeH4Pt(C4N3)2
_chemical_formula_sum   'Fe1 H4 Pt1 C8 N6'
_cell_volume   344.26305795
_cell_formula_units_Z   1
loop_
 _symmetry_equiv_pos_site_id
 _symmetry_equiv_pos_as_xyz
  1  'x, y, z'
loop_
 _atom_site_type_symbol
 _atom_site_label
 _atom_site_symmetry_multiplicity
 _atom_site_fract_x
 _atom_site_fract_y
 _atom_site_fract_z
 _atom_site_occupancy
  Fe  Fe1  1  0.50000000  0.00000000  0.00000000  1.0
  H  H1  1  0.17040000  0.72420000  0.00000000  1.0
  H  H2  1  0.82960000  0.27580000  0.00000000  1.0
  H  H3  1  0.82960000  0.72420000  0.00000000  1.0
  H  H4  1  0.17040000  0.27580000  0.00000000  1.0
  Pt  Pt1  1  0.50000000  0.50000000  0.50000000  1.0
  C  C1  1  0.50000000  0.30370000  0.69520000  1.0
  C  C2  1  0.50000000  0.69630000  0.69520000  1.0
  C  C3  1  0.50000000  0.30370000  0.30480000  1.0
  C  C4  1  0.50000000  0.69630000  0.30480000  1.0
  C  C5  1  0.10200000  0.84080000  0.00000000  1.0
  C  C6  1  0.89800000  0.15920000  0.00000000  1.0
  C  C7  1  0.89800000  0.84080000  0.00000000  1.0
  C  C8  1  0.10200000  0.15920000  0.00000000  1.0
  N  N1  1  0.50000000  0.19130000  0.81010000  1.0
  N  N2  1  0.50000000  0.80870000  0.81010000  1.0
  N  N3  1  0.50000000  0.19130000  0.18990000  1.0
  N  N4  1  0.50000000  0.80870000  0.18990000  1.0
  N  N5  1  0.20740000  0.00000000  0.00000000  1.0
  N  N6  1  0.79260000  0.00000000  0.00000000  1.0
